/*--------------------------------*- C++ -*----------------------------------*\
| =========                 |                                                 |
| \\      /  F ield         | OpenFOAM: The Open Source CFD Toolbox           |
|  \\    /   O peration     | Version:  2506                                  |
|   \\  /    A nd           | Website:  www.openfoam.com                      |
|    \\/     M anipulation  |                                                 |
\*---------------------------------------------------------------------------*/
FoamFile
{
    version     2.0;
    format      ascii;
    arch        "LSB;label=32;scalar=64";
    class       featureEdgeMesh;
    location    "constant/triSurface";
    object      foam_mesh.eMesh;
}
// * * * * * * * * * * * * * * * * * * * * * * * * * * * * * * * * * * * * * //


// points:

3970
(
(0.4949 -0.5 0)
(0.4949 -0.5 -0.5)
(0.4949 3.31651e-15 0)
(0.4949 3.31651e-15 -0.5)
(-0.0051 -3.35002e-17 -0.5)
(-0.0051 -3.35002e-17 0)
(-0.0051 0.01 -0.5)
(1.0049 0.01 -0.5)
(1.0049 3.09967e-15 0)
(1.0049 3.09967e-15 -0.5)
(0.5049 3.31651e-15 0)
(0.5049 3.31651e-15 -0.5)
(0.5049 -0.5 -0.5)
(0.5049 -0.5 0)
(-0.0051 0.01 0)
(1.0049 0.01 0)
(0.654614 -0.110638 -0.5)
(0.644983 -0.107948 -0.5)
(0.65288 -0.101101 -2.85466)
(0.654796 -0.0790149 -0.5)
(0.645135 -0.0815946 -0.5)
(0.345004 -0.0790149 -0.5)
(0.354665 -0.0815946 -0.5)
(0.345186 -0.110638 -0.5)
(0.354817 -0.107948 -0.5)
(0.452973 0.0794319 -0.5)
(0.352973 0.0794319 -0.5)
(0.352973 0.0794319 -2.79102)
(0.452032 -0.0621974 -2.85467)
(0.452973 -0.0798311 -2.84831)
(0.452032 -0.083357 -2.81508)
(0.353579 0.071289 -2.80776)
(0.353579 0.0716701 -2.79102)
(0.353579 0.0716701 -2.50464)
(0.353579 0.0656413 -2.83031)
(0.352973 -0.0690222 -2.86149)
(0.452973 -0.0944929 -0.5)
(0.452973 -0.0690222 -2.86149)
(0.452032 0.0638953 -2.82959)
(0.452032 0.0694082 -2.80757)
(0.452032 0.0697802 -2.79102)
(0.452973 0.223296 -0.5)
(0.352973 0.223296 -0.5)
(0.352973 0.223296 -3.17891)
(0.452973 -0.227621 -3.17891)
(0.452038 -0.217998 -3.17891)
(0.452038 -0.217998 -2.975)
(0.353588 -0.219802 -3.17891)
(0.353588 0.215477 -3.17891)
(0.353588 0.215477 -2.95566)
(0.352973 -0.227621 -0.5)
(0.452973 -0.227621 -0.5)
(0.452038 0.213673 -3.17891)
(0.443558 0.36717 -0.5)
(0.343558 0.36717 -0.5)
(0.443558 -0.374707 -3.44041)
(0.443558 -0.376557 -3.40283)
(0.443558 -0.376557 -3.35748)
(0.44262 -0.366913 -3.35748)
(0.44262 -0.366913 -3.13825)
(0.344167 -0.368779 -3.35748)
(0.343558 0.388306 -3.35469)
(0.343558 0.388642 -3.4)
(0.344167 0.380529 -3.35474)
(0.344167 0.378768 -3.11685)
(0.343558 0.387071 -3.43759)
(0.343558 -0.374707 -3.44041)
(0.343558 -0.376557 -3.40283)
(0.343558 -0.376557 -3.35748)
(0.343558 -0.376557 -0.5)
(0.443558 -0.376557 -0.5)
(0.443558 0.387071 -3.43759)
(0.443558 0.388642 -3.4)
(0.44262 0.378663 -3.35476)
(0.31104 0.375862 -0.5)
(0.21104 0.375862 -0.5)
(0.31104 -0.256309 -3.47656)
(0.310106 -0.246686 -3.47656)
(0.310106 -0.246686 -3.25)
(0.211655 -0.24849 -3.47656)
(0.21104 0.375862 -3.47656)
(0.211655 0.368044 -3.47656)
(0.211655 0.368044 -3.22852)
(0.21104 -0.256309 -0.5)
(0.31104 -0.256309 -0.5)
(0.310106 0.36624 -3.47656)
(0.337217 0.137019 -0.5)
(0.237217 0.137019 -0.5)
(0.337217 -0.0929318 -3.02264)
(0.336276 -0.0849968 -3.01043)
(0.237823 -0.0868776 -3.01061)
(0.237823 0.129258 -2.78271)
(0.237217 0.134791 -3.02264)
(0.237823 0.128736 -3.01061)
(0.237217 -0.0929318 -3.02264)
(0.237217 -0.0951605 -0.5)
(0.337217 -0.0951605 -0.5)
(0.336276 -0.0855089 -2.79167)
(0.337217 0.134791 -3.02264)
(0.336276 0.126856 -3.01043)
(0.190803 0.204151 -0.5)
(0.0908026 0.204151 -0.5)
(0.189862 -0.0774909 -3.51336)
(0.0914087 -0.0793717 -3.51354)
(0.0914087 0.19639 -3.23926)
(0.0914087 0.195725 -3.51354)
(0.0908026 -0.0877984 -0.5)
(0.0908026 -0.0877984 -3.48828)
(0.190803 -0.0877984 -3.48828)
(0.190803 -0.0877984 -0.5)
(0.189862 -0.0781467 -3.25)
(0.189862 0.193844 -3.51336)
(0.546827 0.0794319 -0.5)
(0.646827 0.0794319 -0.5)
(0.547768 -0.10229 -2.81884)
(0.646827 0.0794319 -2.79102)
(0.646221 0.0867379 -2.80928)
(0.646221 0.0871937 -2.79102)
(0.646221 0.0871937 -2.64783)
(0.646221 0.0799832 -2.83625)
(0.646827 -0.0558245 -2.87226)
(0.646827 -0.0690222 -2.86149)
(0.546827 -0.0944929 -0.5)
(0.547768 0.0817292 -2.83697)
(0.547768 0.0886187 -2.80947)
(0.547768 0.0890835 -2.79102)
(0.546827 0.0794319 -2.79102)
(0.644037 -0.0649702 -2.88595)
(0.644037 -0.0806672 -2.87314)
(0.644037 -0.103088 -2.83958)
(0.639671 -0.087249 -2.87972)
(0.639671 -0.111688 -2.84314)
(0.546827 0.223296 -0.5)
(0.646827 0.223296 -0.5)
(0.546827 -0.227621 -3.17891)
(0.547762 -0.237243 -3.17891)
(0.547762 -0.237243 -2.975)
(0.646212 -0.235439 -3.17891)
(0.646827 0.223296 -3.17891)
(0.646212 0.231114 -3.17891)
(0.646212 0.231114 -2.95566)
(0.646827 -0.227621 -0.5)
(0.546827 -0.227621 -0.5)
(0.547762 0.232918 -3.17891)
(0.556242 0.36717 -0.5)
(0.556242 -0.374707 -3.44041)
(0.557177 -0.384285 -3.44135)
(0.655627 -0.382485 -3.44117)
(0.603647 0.418422 -0.678048)
(0.606242 0.417171 -0.5)
(0.612476 0.418099 -0.678051)
(0.656242 0.36717 -0.5)
(0.656242 0.388642 -3.4)
(0.655627 0.396457 -3.39994)
(0.655627 0.396121 -3.35463)
(0.655627 0.394854 -3.4383)
(0.656242 0.387071 -3.43759)
(0.656242 -0.374707 -3.44041)
(0.655627 -0.384372 -3.35748)
(0.656242 -0.376557 -3.40283)
(0.655627 -0.384372 -3.40283)
(0.557177 -0.386181 -3.40283)
(0.556242 -0.376557 -3.35748)
(0.656242 -0.376557 -0.5)
(0.556242 -0.376557 -0.5)
(0.556242 -0.376557 -3.40283)
(0.557177 -0.386181 -3.35748)
(0.557177 -0.386181 -3.13825)
(0.557177 0.396655 -3.43846)
(0.556242 0.387071 -3.43759)
(0.557177 0.398266 -3.39993)
(0.556242 0.388642 -3.4)
(0.557177 0.397931 -3.35462)
(0.68876 0.375862 -0.5)
(0.78876 0.375862 -0.5)
(0.68876 -0.256309 -3.47656)
(0.689694 -0.265932 -3.47656)
(0.689694 -0.265932 -3.25)
(0.788144 -0.264127 -3.47656)
(0.78876 0.375862 -3.47656)
(0.788144 0.383681 -3.47656)
(0.788144 0.383681 -3.29053)
(0.78876 -0.256309 -0.5)
(0.68876 -0.256309 -0.5)
(0.689694 0.385485 -3.47656)
(0.662583 0.137019 -0.5)
(0.762583 0.137019 -0.5)
(0.761977 0.144781 -2.8346)
(0.762583 0.134791 -3.02264)
(0.761977 0.142403 -3.02415)
(0.761977 0.144185 -3.01213)
(0.761977 -0.102326 -3.01213)
(0.762583 -0.0929318 -3.02264)
(0.761977 -0.100545 -3.02415)
(0.663524 -0.102398 -3.02452)
(0.762583 -0.0951605 -0.5)
(0.663524 -0.104812 -2.79167)
(0.663524 -0.104207 -3.01232)
(0.662583 -0.0951605 -0.5)
(0.662583 -0.0929318 -3.02264)
(0.663524 0.144257 -3.02452)
(0.662583 0.134791 -3.02264)
(0.663524 0.146066 -3.01232)
(0.808997 0.204151 -0.5)
(0.908997 0.204151 -0.5)
(0.809938 -0.0967014 -3.51525)
(0.908391 -0.0948206 -3.51506)
(0.908391 0.211913 -3.30151)
(0.908391 0.211174 -3.51506)
(0.908997 -0.0877984 -0.5)
(0.908997 -0.0877984 -3.48828)
(0.808997 -0.0877984 -3.48828)
(0.808997 -0.0877984 -0.5)
(0.809938 -0.0974501 -3.25)
(0.809938 0.213054 -3.51525)
(0.606242 0.317168 -0.5)
(0.90851 -0.0808358 -3.25)
(0.90851 -0.080167 -3.51362)
(0.809381 -0.080946 -3.5137)
(0.90851 0.19652 -3.51362)
(0.809381 0.197299 -3.5137)
(0.761764 -0.0861441 -2.79167)
(0.761764 -0.085629 -3.01049)
(0.664128 -0.08233 -3.01017)
(0.761764 0.127488 -3.01049)
(0.664128 0.124688 -2.67895)
(0.664128 0.124189 -3.01017)
(0.788318 -0.249682 -3.47656)
(0.689146 -0.250108 -3.47656)
(0.788318 0.369235 -3.47656)
(0.689146 0.369662 -3.47656)
(0.655798 -0.36991 -3.35748)
(0.556627 -0.370357 -3.35748)
(0.655798 0.381659 -3.35474)
(0.611684 0.320108 -0.85688)
(0.600007 0.320201 -0.856879)
(0.556627 0.382107 -3.35473)
(0.646386 -0.220993 -3.17891)
(0.547213 -0.22142 -3.17891)
(0.646386 0.216668 -3.17891)
(0.547213 0.217095 -3.17891)
(0.646008 0.0644822 -2.82983)
(0.646008 0.0700405 -2.80764)
(0.646008 0.0704155 -2.79102)
(0.548372 0.0671005 -2.50464)
(0.548372 0.0671005 -2.79102)
(0.548372 0.0667414 -2.80731)
(0.548372 0.0614195 -2.82856)
(0.548372 -0.0807288 -2.81455)
(0.0912897 -0.094761 -3.25)
(0.0912897 -0.0940252 -3.51498)
(0.190419 -0.0932463 -3.51491)
(0.0912897 0.210378 -3.51498)
(0.190419 0.209599 -3.51491)
(0.237704 -0.102123 -2.79167)
(0.237704 -0.0997608 -3.024)
(0.237704 -0.101531 -3.01206)
(0.336833 -0.100752 -3.01198)
(0.237704 0.14339 -3.01206)
(0.237704 0.14162 -3.024)
(0.336833 0.140852 -3.02384)
(0.336833 0.142611 -3.01198)
(0.336833 -0.0989931 -3.02384)
(0.211482 -0.262936 -3.47656)
(0.310654 -0.26251 -3.47656)
(0.211482 0.38249 -3.47656)
(0.310654 0.382063 -3.47656)
(0.344032 -0.383426 -3.40283)
(0.344032 -0.383426 -3.35748)
(0.344032 -0.383426 -3.13825)
(0.443174 -0.382742 -3.35748)
(0.344032 -0.381544 -3.44108)
(0.443174 0.393231 -3.43815)
(0.344032 0.393912 -3.43821)
(0.344032 0.395176 -3.35464)
(0.344032 0.395511 -3.39995)
(0.443174 0.394827 -3.39995)
(0.443174 0.394492 -3.35464)
(0.443174 -0.380863 -3.44101)
(0.443174 -0.382742 -3.40283)
(0.353414 -0.234248 -3.17891)
(0.452587 -0.233821 -3.17891)
(0.353414 0.229923 -3.17891)
(0.452587 0.229496 -3.17891)
(0.452973 -0.0944929 -2.79102)
(0.35346 0.0792449 -2.83594)
(0.35346 0.0859426 -2.8092)
(0.35346 0.0863945 -2.79102)
(0.45259 0.0851636 -2.80912)
(0.45259 0.0856118 -2.79102)
(0.45259 0.0785217 -2.83564)
(0.45259 -0.0988847 -2.81816)
(0.35493 -0.108346 -2.8)
(0.357703 -0.115721 -2.8)
(0.652674 -0.091868 -2.86889)
(0.652583 -0.0951605 -2.86503)
(0.345186 -0.110638 -2.80001)
(0.345254 -0.110382 -2.81013)
(0.452032 0.0697802 -0.786377)
(0.452032 0.0697802 -1.35913)
(0.452032 0.0697802 -1.07275)
(0.353579 0.0716701 -1.07275)
(0.353579 0.0716701 -1.35913)
(0.353579 0.0716701 -1.64551)
(0.353579 0.0716701 -1.93189)
(0.353579 0.0716701 -2.21826)
(0.452973 -0.0928234 -2.81696)
(0.452032 -0.0848412 -2.41667)
(0.452032 -0.0848412 -2.60833)
(0.355763 -0.0780243 -2.60833)
(0.355763 -0.0780243 -2.41667)
(0.355763 -0.0780243 -1.84167)
(0.355763 -0.0780243 -2.03333)
(0.353579 0.0716701 -0.786377)
(0.352973 0.0790135 -2.80852)
(0.353579 0.069298 -2.81924)
(0.452032 -0.0848412 -2.8)
(0.352973 0.0728123 -2.83328)
(0.353579 -0.0635338 -2.856)
(0.352973 -0.0558245 -2.87226)
(0.355763 -0.0780243 -1.01111)
(0.355763 -0.0780243 -1.26667)
(0.452032 -0.0848412 -0.755556)
(0.452032 -0.0848412 -1.01111)
(0.452032 -0.0848412 -1.26667)
(0.452032 -0.0848412 -1.55417)
(0.452032 -0.0848412 -1.84167)
(0.452032 -0.0848412 -2.03333)
(0.452032 -0.0848412 -2.225)
(0.452973 0.0728123 -2.83328)
(0.452032 0.0674647 -2.81878)
(0.452973 0.0790135 -2.80852)
(0.452973 0.0794319 -2.79102)
(0.452032 0.0697802 -2.50464)
(0.452032 0.0697802 -2.21826)
(0.452032 0.0697802 -1.93189)
(0.355763 -0.076671 -2.81375)
(0.355763 -0.0726583 -2.82698)
(0.355763 -0.0780243 -2.8)
(0.355763 -0.0780243 -0.755556)
(0.452032 0.0697802 -1.64551)
(0.355763 -0.0780243 -2.225)
(0.355763 -0.0780243 -1.55417)
(0.452038 0.213673 -0.834863)
(0.452038 0.213673 -1.50459)
(0.452038 0.213673 -1.16973)
(0.353588 0.215477 -1.16973)
(0.353588 0.215477 -1.50459)
(0.353588 0.215477 -1.83945)
(0.353588 0.215477 -2.17432)
(0.353588 0.215477 -2.50918)
(0.353588 -0.219802 -2.975)
(0.353588 -0.219802 -2.75)
(0.353588 -0.219802 -2.525)
(0.353588 0.215477 -0.834863)
(0.352973 -0.227621 -3.17891)
(0.353588 -0.219802 -2.3)
(0.353588 -0.219802 -2.075)
(0.353588 -0.219802 -0.725)
(0.353588 -0.219802 -1.175)
(0.353588 -0.219802 -0.95)
(0.452038 -0.217998 -0.95)
(0.452038 -0.217998 -0.725)
(0.452038 -0.217998 -1.175)
(0.452038 -0.217998 -1.85)
(0.452038 -0.217998 -1.625)
(0.452038 -0.217998 -1.4)
(0.452973 0.223296 -3.17891)
(0.452038 0.213673 -2.95566)
(0.452038 0.213673 -2.50918)
(0.452038 0.213673 -2.17432)
(0.452038 0.213673 -2.73242)
(0.353588 0.215477 -2.73242)
(0.452038 -0.217998 -2.75)
(0.452038 -0.217998 -2.3)
(0.452038 -0.217998 -2.075)
(0.353588 -0.219802 -1.625)
(0.353588 -0.219802 -1.4)
(0.452038 -0.217998 -2.525)
(0.452038 0.213673 -1.83945)
(0.353588 -0.219802 -1.85)
(0.44262 0.358847 -0.678489)
(0.44262 0.36149 -1.03533)
(0.44262 0.360169 -0.856907)
(0.344167 0.362035 -0.856894)
(0.344167 0.363356 -1.03531)
(0.344167 0.364677 -1.21373)
(0.344167 0.365998 -1.39215)
(0.344167 -0.368779 -3.13825)
(0.344167 -0.368779 -2.91903)
(0.344167 -0.368779 -2.67713)
(0.344167 0.360713 -0.678476)
(0.344167 0.369961 -1.9274)
(0.344167 0.36864 -1.74898)
(0.344167 0.367319 -1.57056)
(0.344167 -0.368779 -2.43522)
(0.344167 -0.368779 -2.19332)
(0.344167 -0.368779 -0.741903)
(0.344167 -0.368779 -1.22571)
(0.344167 -0.368779 -0.983806)
(0.44262 -0.366913 -0.983806)
(0.44262 -0.366913 -0.741903)
(0.44262 -0.366913 -1.22571)
(0.44262 -0.366913 -1.95142)
(0.44262 -0.366913 -1.70951)
(0.44262 -0.366913 -1.46761)
(0.443558 0.388306 -3.35469)
(0.44262 0.376902 -3.11687)
(0.44262 0.370737 -2.28425)
(0.44262 0.369416 -2.10583)
(0.44262 0.364132 -1.39216)
(0.44262 0.36281 -1.21374)
(0.44262 0.365453 -1.57058)
(0.44262 0.373379 -2.64109)
(0.44262 0.372058 -2.46267)
(0.44262 0.37514 -2.87898)
(0.344167 0.372603 -2.28424)
(0.344167 0.371282 -2.10582)
(0.344167 0.373924 -2.46266)
(0.344167 0.377006 -2.87896)
(0.44262 -0.366913 -2.91903)
(0.44262 -0.366913 -2.43522)
(0.44262 -0.366913 -2.19332)
(0.344167 -0.368779 -1.70951)
(0.344167 -0.368779 -1.46761)
(0.44262 -0.366913 -2.67713)
(0.344167 0.375245 -2.64107)
(0.44262 0.366774 -1.749)
(0.44262 0.368095 -1.92741)
(0.344167 -0.368779 -1.95142)
(0.310106 0.36624 -0.686035)
(0.310106 0.36624 -1.05811)
(0.310106 0.36624 -0.87207)
(0.211655 0.368044 -0.87207)
(0.211655 0.368044 -1.05811)
(0.211655 0.368044 -1.24414)
(0.211655 0.368044 -1.43018)
(0.211655 -0.24849 -3.25)
(0.211655 -0.24849 -3)
(0.211655 -0.24849 -2.75)
(0.211655 0.368044 -0.686035)
(0.211655 0.368044 -1.98828)
(0.211655 0.368044 -1.80225)
(0.211655 0.368044 -1.61621)
(0.21104 -0.256309 -3.47656)
(0.211655 -0.24849 -2.5)
(0.211655 -0.24849 -2.25)
(0.211655 -0.24849 -0.75)
(0.211655 -0.24849 -1.25)
(0.211655 -0.24849 -1)
(0.310106 -0.246686 -1)
(0.310106 -0.246686 -0.75)
(0.310106 -0.246686 -1.25)
(0.310106 -0.246686 -2)
(0.310106 -0.246686 -1.75)
(0.310106 -0.246686 -1.5)
(0.31104 0.375862 -3.47656)
(0.310106 0.36624 -3.22852)
(0.310106 0.36624 -2.36035)
(0.310106 0.36624 -2.17432)
(0.310106 0.36624 -1.43018)
(0.310106 0.36624 -1.24414)
(0.310106 0.36624 -1.61621)
(0.310106 0.36624 -2.73242)
(0.310106 0.36624 -2.54639)
(0.310106 0.36624 -2.98047)
(0.211655 0.368044 -2.36035)
(0.211655 0.368044 -2.17432)
(0.211655 0.368044 -2.54639)
(0.211655 0.368044 -2.98047)
(0.310106 -0.246686 -3)
(0.310106 -0.246686 -2.5)
(0.310106 -0.246686 -2.25)
(0.211655 -0.24849 -1.75)
(0.211655 -0.24849 -1.5)
(0.310106 -0.246686 -2.75)
(0.211655 0.368044 -2.73242)
(0.310106 0.36624 -1.80225)
(0.310106 0.36624 -1.98828)
(0.211655 -0.24849 -2)
(0.336276 0.127368 -0.811279)
(0.336276 0.127368 -1.43384)
(0.336276 0.127368 -1.12256)
(0.237823 0.129258 -1.12256)
(0.237823 0.129258 -1.43384)
(0.237823 0.129258 -1.74512)
(0.237217 0.137019 -2.99023)
(0.237823 0.129258 -2.0564)
(0.237823 0.129258 -2.36768)
(0.337217 -0.0611586 -3.08209)
(0.337217 -0.0435403 -3.09647)
(0.337217 -0.0755879 -3.0645)
(0.337217 -0.0863237 -3.04443)
(0.337217 -0.094602 -3.01137)
(0.336276 -0.0855089 -3)
(0.237823 -0.0873987 -3)
(0.237823 0.129258 -0.811279)
(0.237823 0.129258 -2.99023)
(0.237217 0.136461 -3.01137)
(0.237823 0.129254 -3.00079)
(0.237217 0.128183 -3.04443)
(0.237217 0.117447 -3.0645)
(0.237217 0.103017 -3.08209)
(0.237217 0.0853991 -3.09647)
(0.237217 0.0653113 -3.10715)
(0.237217 0.0435545 -3.1138)
(0.237217 0.0209294 -3.11609)
(0.237217 -0.0016957 -3.1138)
(0.237217 -0.0234525 -3.10715)
(0.237217 -0.0435403 -3.09647)
(0.237217 -0.0611586 -3.08209)
(0.237217 -0.0755879 -3.0645)
(0.237217 -0.0863237 -3.04443)
(0.237217 -0.094602 -3.01137)
(0.237823 -0.0873987 -2.16667)
(0.237823 -0.0873987 -1.95833)
(0.336276 -0.0855089 -1.95833)
(0.336276 -0.0855089 -2.16667)
(0.336276 -0.0855089 -2.375)
(0.336276 -0.0855089 -2.58333)
(0.237823 -0.0873987 -0.743056)
(0.237823 -0.0873987 -1.22917)
(0.237823 -0.0873987 -0.986111)
(0.336276 -0.0855089 -0.986111)
(0.336276 -0.0855089 -1.22917)
(0.336276 -0.0855089 -1.47222)
(0.336276 -0.0855089 -1.71528)
(0.336276 -0.0855089 -0.743056)
(0.337217 -0.0951605 -2.99023)
(0.337217 -0.0234525 -3.10715)
(0.337217 -0.0016957 -3.1138)
(0.337217 0.0209294 -3.11609)
(0.337217 0.0435545 -3.1138)
(0.337217 0.0653113 -3.10715)
(0.337217 0.0853991 -3.09647)
(0.337217 0.103017 -3.08209)
(0.337217 0.117447 -3.0645)
(0.337217 0.128183 -3.04443)
(0.337217 0.136461 -3.01137)
(0.336276 0.127364 -3.00078)
(0.336276 0.127368 -2.99023)
(0.336276 0.127368 -2.36768)
(0.336276 0.127368 -2.0564)
(0.336276 0.127368 -2.78271)
(0.336276 0.127368 -2.5752)
(0.237823 0.129258 -2.5752)
(0.237823 -0.0873987 -2.375)
(0.237823 -0.0873987 -1.71528)
(0.237823 -0.0873987 -1.47222)
(0.237823 -0.0873987 -2.79167)
(0.237823 -0.0873987 -2.58333)
(0.336276 0.127368 -1.74512)
(0.189862 0.1945 -0.686768)
(0.189862 0.1945 -1.0603)
(0.189862 0.1945 -0.873535)
(0.0914087 0.19639 -0.873535)
(0.0914087 0.19639 -1.0603)
(0.0914087 0.19639 -1.24707)
(0.0914087 0.19639 -1.43384)
(0.190803 -0.0870961 -3.5143)
(0.189862 -0.0781467 -3.5)
(0.0914087 -0.0800366 -3.5)
(0.0914087 0.19639 -0.686768)
(0.0908026 0.204151 -3.48828)
(0.0914087 0.19639 -1.99414)
(0.0914087 0.19639 -1.80737)
(0.0914087 0.19639 -1.6206)
(0.0914087 0.19639 -3.48828)
(0.0908026 0.203449 -3.5143)
(0.0914087 0.196382 -3.50127)
(0.0908026 -0.0870961 -3.5143)
(0.0914087 -0.0800366 -2.25)
(0.0914087 -0.0800366 -2.5)
(0.189862 -0.0781467 -2.25)
(0.189862 -0.0781467 -2.5)
(0.189862 -0.0781467 -2.75)
(0.189862 -0.0781467 -3)
(0.190803 0.203449 -3.5143)
(0.189862 0.194493 -3.50125)
(0.189862 0.1945 -3.48828)
(0.189862 0.1945 -2.36768)
(0.189862 0.1945 -2.18091)
(0.189862 0.1945 -1.43384)
(0.189862 0.1945 -1.24707)
(0.189862 0.1945 -1.6206)
(0.189862 0.1945 -2.74121)
(0.189862 0.1945 -2.55444)
(0.189862 0.1945 -2.99023)
(0.0914087 0.19639 -2.36768)
(0.0914087 0.19639 -2.18091)
(0.0914087 0.19639 -2.55444)
(0.0914087 0.19639 -2.99023)
(0.0914087 -0.0800366 -2.75)
(0.189862 0.1945 -3.23926)
(0.0914087 -0.0800366 -3.25)
(0.0914087 -0.0800366 -3)
(0.0914087 0.19639 -2.74121)
(0.189862 0.1945 -1.80737)
(0.189862 0.1945 -1.99414)
(0.547768 0.0890835 -0.643189)
(0.547768 0.0890835 -0.929565)
(0.547768 0.0890835 -0.786377)
(0.646221 0.0871937 -0.786377)
(0.646221 0.0871937 -0.929565)
(0.646221 0.0871937 -1.07275)
(0.646221 0.0871937 -1.21594)
(0.546827 -0.0928234 -2.81696)
(0.547768 -0.104145 -2.41667)
(0.547768 -0.104145 -2.60833)
(0.644037 -0.110961 -2.60833)
(0.644037 -0.110961 -2.41667)
(0.644037 -0.110961 -2.03333)
(0.644037 -0.110961 -2.16111)
(0.646221 0.0871937 -0.643189)
(0.646221 0.0871937 -1.64551)
(0.646221 0.0871937 -1.50232)
(0.646221 0.0871937 -1.35913)
(0.646827 0.0790135 -2.80852)
(0.646221 0.0843566 -2.82301)
(0.547768 -0.104145 -2.8)
(0.646827 0.0728123 -2.83328)
(0.646221 -0.060135 -2.87871)
(0.644037 -0.110961 -1.84167)
(0.644037 -0.110961 -0.806667)
(0.644037 -0.110961 -0.96)
(0.547768 -0.104145 -0.653333)
(0.547768 -0.104145 -0.806667)
(0.547768 -0.104145 -0.96)
(0.547768 -0.104145 -1.11333)
(0.547768 -0.104145 -1.26667)
(0.547768 -0.104145 -1.41042)
(0.547768 -0.104145 -1.55417)
(0.547768 -0.104145 -1.69792)
(0.547768 -0.104145 -1.84167)
(0.547768 -0.104145 -2.03333)
(0.547768 -0.104145 -2.16111)
(0.547768 -0.104145 -2.28889)
(0.546827 0.0728123 -2.83328)
(0.547768 0.0861899 -2.82347)
(0.546827 0.0790135 -2.80852)
(0.547768 0.0890835 -2.64783)
(0.547768 0.0890835 -1.93189)
(0.547768 0.0890835 -1.7887)
(0.547768 0.0890835 -1.21594)
(0.547768 0.0890835 -1.07275)
(0.547768 0.0890835 -1.35913)
(0.547768 0.0890835 -2.21826)
(0.547768 0.0890835 -2.07507)
(0.547768 0.0890835 -2.36145)
(0.646221 0.0871937 -2.07507)
(0.646221 0.0871937 -1.93189)
(0.646221 0.0871937 -2.21826)
(0.646221 0.0871937 -2.50464)
(0.644037 -0.110961 -1.11333)
(0.644037 -0.108976 -2.82017)
(0.644037 -0.110961 -2.8)
(0.639671 -0.101262 -2.86263)
(0.644037 -0.110961 -0.653333)
(0.646221 0.0871937 -2.36145)
(0.547768 0.0890835 -1.50232)
(0.547768 0.0890835 -1.64551)
(0.646221 0.0871937 -1.7887)
(0.547768 0.0890835 -2.50464)
(0.644037 -0.110961 -2.28889)
(0.644037 -0.110961 -1.69792)
(0.644037 -0.110961 -1.55417)
(0.644037 -0.110961 -1.41042)
(0.644037 -0.110961 -1.26667)
(0.547762 0.232918 -0.667432)
(0.547762 0.232918 -1.0023)
(0.547762 0.232918 -0.834863)
(0.646212 0.231114 -0.834863)
(0.646212 0.231114 -1.0023)
(0.646212 0.231114 -1.16973)
(0.646212 0.231114 -1.33716)
(0.646212 -0.235439 -2.975)
(0.646212 -0.235439 -2.75)
(0.646212 -0.235439 -2.525)
(0.646212 0.231114 -0.667432)
(0.646212 0.231114 -1.83945)
(0.646212 0.231114 -1.67202)
(0.646212 0.231114 -1.50459)
(0.646827 -0.227621 -3.17891)
(0.646212 -0.235439 -2.12)
(0.646212 -0.235439 -1.94)
(0.646212 -0.235439 -0.68)
(0.646212 -0.235439 -1.04)
(0.646212 -0.235439 -0.86)
(0.547762 -0.237243 -0.68)
(0.547762 -0.237243 -0.86)
(0.547762 -0.237243 -1.04)
(0.547762 -0.237243 -1.22)
(0.547762 -0.237243 -1.4)
(0.547762 -0.237243 -1.58)
(0.547762 -0.237243 -1.76)
(0.547762 -0.237243 -1.94)
(0.547762 -0.237243 -2.12)
(0.547762 -0.237243 -2.3)
(0.547762 -0.237243 -2.525)
(0.547762 -0.237243 -2.75)
(0.546827 0.223296 -3.17891)
(0.547762 0.232918 -2.95566)
(0.547762 0.232918 -2.17432)
(0.547762 0.232918 -2.00688)
(0.547762 0.232918 -1.33716)
(0.547762 0.232918 -1.16973)
(0.547762 0.232918 -1.50459)
(0.547762 0.232918 -2.50918)
(0.547762 0.232918 -2.34175)
(0.547762 0.232918 -2.73242)
(0.646212 0.231114 -2.17432)
(0.646212 0.231114 -2.00688)
(0.646212 0.231114 -2.34175)
(0.646212 0.231114 -2.73242)
(0.646212 -0.235439 -1.4)
(0.646212 -0.235439 -1.22)
(0.646212 0.231114 -2.50918)
(0.547762 0.232918 -1.67202)
(0.547762 0.232918 -1.83945)
(0.646212 -0.235439 -2.3)
(0.646212 -0.235439 -1.76)
(0.646212 -0.235439 -1.58)
(0.557177 0.378115 -0.678347)
(0.557177 0.380757 -1.03518)
(0.557177 0.379436 -0.856765)
(0.655627 0.377627 -0.856778)
(0.655627 0.378948 -1.0352)
(0.655627 0.380269 -1.21361)
(0.655627 0.38159 -1.39203)
(0.557177 -0.385703 -3.42206)
(0.655627 -0.383896 -3.42198)
(0.655627 0.376306 -0.67836)
(0.655627 0.382911 -1.57045)
(0.655627 0.384232 -1.74887)
(0.656242 0.388306 -3.35469)
(0.655627 0.39436 -3.11674)
(0.656242 -0.376557 -3.35748)
(0.655627 -0.384372 -2.2417)
(0.655627 -0.384372 -2.04818)
(0.557177 -0.386181 -2.04818)
(0.557177 -0.386181 -2.2417)
(0.557177 -0.386181 -2.43522)
(0.557177 -0.386181 -2.67713)
(0.655627 -0.384372 -0.693522)
(0.655627 -0.384372 -1.08057)
(0.655627 -0.384372 -0.887044)
(0.557177 -0.386181 -0.887044)
(0.557177 -0.386181 -1.08057)
(0.557177 -0.386181 -1.27409)
(0.557177 -0.386181 -1.46761)
(0.557177 -0.386181 -0.693522)
(0.557177 -0.386181 -1.85465)
(0.557177 -0.386181 -1.66113)
(0.557177 0.397931 -3.41916)
(0.556242 0.388306 -3.35469)
(0.557177 0.396169 -3.11673)
(0.557177 0.394408 -2.87883)
(0.557177 0.390004 -2.28411)
(0.557177 0.388683 -2.10569)
(0.557177 0.383399 -1.39202)
(0.557177 0.382078 -1.2136)
(0.557177 0.38472 -1.57044)
(0.557177 0.392646 -2.64094)
(0.557177 0.391325 -2.46253)
(0.655627 0.388195 -2.28412)
(0.655627 0.389516 -2.46254)
(0.655627 0.392599 -2.87885)
(0.557177 -0.386181 -2.91903)
(0.655627 -0.384372 -2.91903)
(0.655627 -0.384372 -2.67713)
(0.655627 -0.384372 -1.46761)
(0.655627 -0.384372 -1.27409)
(0.655627 0.396123 -3.41909)
(0.655627 -0.384372 -3.13825)
(0.655627 0.390837 -2.64096)
(0.557177 0.386041 -1.74885)
(0.557177 0.387362 -1.92727)
(0.655627 0.385553 -1.92729)
(0.655627 0.386874 -2.1057)
(0.655627 -0.384372 -2.43522)
(0.655627 -0.384372 -1.85465)
(0.655627 -0.384372 -1.66113)
(0.689694 0.385485 -0.686035)
(0.689694 0.385485 -1.05811)
(0.689694 0.385485 -0.87207)
(0.788144 0.383681 -0.87207)
(0.788144 0.383681 -1.05811)
(0.788144 0.383681 -1.24414)
(0.788144 0.383681 -1.43018)
(0.788144 -0.264127 -3.25)
(0.788144 -0.264127 -3)
(0.788144 -0.264127 -2.75)
(0.788144 0.383681 -0.686035)
(0.788144 0.383681 -1.98828)
(0.788144 0.383681 -1.80225)
(0.788144 0.383681 -1.61621)
(0.78876 -0.256309 -3.47656)
(0.788144 -0.264127 -2.3)
(0.788144 -0.264127 -2.1)
(0.788144 -0.264127 -0.7)
(0.788144 -0.264127 -1.1)
(0.788144 -0.264127 -0.9)
(0.689694 -0.265932 -0.7)
(0.689694 -0.265932 -0.9)
(0.689694 -0.265932 -1.1)
(0.689694 -0.265932 -1.3)
(0.689694 -0.265932 -1.5)
(0.689694 -0.265932 -1.7)
(0.689694 -0.265932 -1.9)
(0.689694 -0.265932 -2.1)
(0.689694 -0.265932 -2.3)
(0.689694 -0.265932 -2.5)
(0.689694 -0.265932 -2.75)
(0.689694 -0.265932 -3)
(0.68876 0.375862 -3.47656)
(0.689694 0.385485 -3.29053)
(0.689694 0.385485 -2.36035)
(0.689694 0.385485 -2.17432)
(0.689694 0.385485 -1.43018)
(0.689694 0.385485 -1.24414)
(0.689694 0.385485 -1.61621)
(0.689694 0.385485 -2.73242)
(0.689694 0.385485 -2.54639)
(0.689694 0.385485 -2.91846)
(0.788144 0.383681 -2.54639)
(0.788144 0.383681 -2.36035)
(0.788144 0.383681 -2.73242)
(0.788144 0.383681 -3.10449)
(0.788144 -0.264127 -1.5)
(0.788144 -0.264127 -1.3)
(0.788144 0.383681 -2.91846)
(0.689694 0.385485 -1.80225)
(0.689694 0.385485 -1.98828)
(0.788144 0.383681 -2.17432)
(0.689694 0.385485 -3.10449)
(0.788144 -0.264127 -2.5)
(0.788144 -0.264127 -1.9)
(0.788144 -0.264127 -1.7)
(0.663524 0.146671 -0.65564)
(0.663524 0.146671 -0.966919)
(0.663524 0.146671 -0.811279)
(0.761977 0.144781 -0.811279)
(0.761977 0.144781 -0.966919)
(0.761977 0.144781 -1.12256)
(0.761977 0.144781 -1.2782)
(0.663524 0.1371 -3.04812)
(0.663524 0.141259 -3.03649)
(0.663524 0.118124 -3.07977)
(0.663524 0.125471 -3.06986)
(0.761977 0.1239 -3.06881)
(0.761977 0.116664 -3.07857)
(0.761977 0.144781 -0.65564)
(0.762583 0.137019 -2.99023)
(0.761977 0.144781 -1.74512)
(0.761977 0.144781 -1.58948)
(0.761977 0.144781 -1.43384)
(0.761977 0.144781 -2.99023)
(0.762583 0.136461 -3.01137)
(0.761977 0.144776 -3.00085)
(0.761977 0.135353 -3.0474)
(0.761977 0.130151 -3.05839)
(0.761977 0.108506 -3.08758)
(0.663524 0.109842 -3.08891)
(0.761977 0.0994904 -3.09572)
(0.761977 0.0897096 -3.10292)
(0.663524 0.0907591 -3.10449)
(0.663524 0.100689 -3.09718)
(0.761977 0.0792701 -3.10913)
(0.761977 0.0682787 -3.11431)
(0.663524 0.0690012 -3.11606)
(0.663524 0.0801603 -3.11079)
(0.761977 0.0568422 -3.11842)
(0.761977 0.0450673 -3.12141)
(0.663524 0.0454356 -3.12326)
(0.663524 0.0573902 -3.12023)
(0.761977 0.0330608 -3.12323)
(0.761977 0.0209294 -3.12385)
(0.663524 0.0209294 -3.12574)
(0.663524 0.0332459 -3.12511)
(0.761977 0.00879808 -3.12323)
(0.761977 -0.00320842 -3.12141)
(0.663524 -0.00357675 -3.12326)
(0.663524 0.00861296 -3.12511)
(0.761977 -0.0149833 -3.11842)
(0.761977 -0.0264198 -3.11431)
(0.663524 -0.0271424 -3.11606)
(0.663524 -0.0155313 -3.12023)
(0.761977 -0.0374112 -3.10913)
(0.761977 -0.0478507 -3.10292)
(0.663524 -0.0489003 -3.10449)
(0.663524 -0.0383015 -3.11079)
(0.761977 -0.0576316 -3.09572)
(0.761977 -0.066647 -3.08758)
(0.663524 -0.0679833 -3.08891)
(0.663524 -0.0588303 -3.09718)
(0.761977 -0.0748047 -3.07857)
(0.761977 -0.0820411 -3.06881)
(0.663524 -0.0836123 -3.06986)
(0.663524 -0.0762655 -3.07977)
(0.761977 -0.0882923 -3.05839)
(0.761977 -0.0934947 -3.0474)
(0.663524 -0.0952407 -3.04812)
(0.663524 -0.0899589 -3.05928)
(0.762583 -0.094602 -3.01137)
(0.761977 -0.0975912 -3.03594)
(0.663524 -0.0993997 -3.03649)
(0.761977 -0.102922 -2.79167)
(0.761977 -0.102922 -2.58333)
(0.761977 -0.102922 -2.11458)
(0.761977 -0.102922 -1.95833)
(0.761977 -0.102922 -0.682292)
(0.761977 -0.102922 -1.04687)
(0.761977 -0.102922 -0.864583)
(0.663524 -0.104812 -0.682292)
(0.663524 -0.104812 -0.864583)
(0.663524 -0.104812 -1.04687)
(0.663524 -0.104812 -1.22917)
(0.663524 -0.104812 -1.41146)
(0.663524 -0.104812 -1.59375)
(0.663524 -0.104812 -1.77604)
(0.663524 -0.104812 -1.95833)
(0.663524 -0.104812 -2.11458)
(0.663524 -0.104812 -2.27083)
(0.663524 -0.104812 -2.42708)
(0.663524 -0.104812 -2.58333)
(0.663524 -0.104812 -3)
(0.662583 -0.0951605 -2.99023)
(0.662583 -0.094602 -3.01137)
(0.662583 0.136461 -3.01137)
(0.663524 0.146671 -2.99023)
(0.663524 0.146671 -2.8346)
(0.663524 0.146671 -2.0564)
(0.663524 0.146671 -1.90076)
(0.663524 0.146671 -1.2782)
(0.663524 0.146671 -1.12256)
(0.663524 0.146671 -1.43384)
(0.663524 0.146671 -2.36768)
(0.663524 0.146671 -2.21204)
(0.663524 0.146671 -2.52331)
(0.761977 0.144781 -2.21204)
(0.761977 0.144781 -2.0564)
(0.761977 0.144781 -2.36768)
(0.761977 0.144781 -2.67895)
(0.761977 -0.102922 -2.42708)
(0.761977 -0.102922 -2.27083)
(0.761977 -0.102922 -1.41146)
(0.761977 -0.102922 -1.22917)
(0.663524 0.146666 -3.00085)
(0.761977 0.13945 -3.03594)
(0.663524 0.131818 -3.05928)
(0.761977 -0.102922 -3)
(0.761977 0.144781 -2.52331)
(0.663524 0.146671 -1.58948)
(0.663524 0.146671 -1.74512)
(0.761977 0.144781 -1.90076)
(0.663524 0.146671 -2.67895)
(0.761977 -0.102922 -1.77604)
(0.761977 -0.102922 -1.59375)
(0.809938 0.213803 -0.686768)
(0.809938 0.213803 -1.0603)
(0.809938 0.213803 -0.873535)
(0.908391 0.211913 -0.873535)
(0.908391 0.211913 -1.0603)
(0.908391 0.211913 -1.24707)
(0.908391 0.211913 -1.43384)
(0.808997 -0.0870961 -3.5143)
(0.809938 -0.0974501 -3.5)
(0.908391 -0.0955602 -3.5)
(0.908391 0.211913 -0.686768)
(0.908997 0.204151 -3.48828)
(0.908391 0.211913 -1.99414)
(0.908391 0.211913 -1.80737)
(0.908391 0.211913 -1.6206)
(0.908391 0.211913 -3.48828)
(0.908997 0.203449 -3.5143)
(0.908391 0.211905 -3.50135)
(0.908997 -0.0870961 -3.5143)
(0.809938 -0.0974501 -2.66667)
(0.809938 -0.0974501 -2.5)
(0.809938 -0.0974501 -3)
(0.808997 0.203449 -3.5143)
(0.809938 0.213795 -3.50136)
(0.809938 0.213803 -3.48828)
(0.809938 0.213803 -2.36768)
(0.809938 0.213803 -2.18091)
(0.809938 0.213803 -1.43384)
(0.809938 0.213803 -1.24707)
(0.809938 0.213803 -1.6206)
(0.809938 0.213803 -2.74121)
(0.809938 0.213803 -2.55444)
(0.809938 0.213803 -2.92798)
(0.908391 0.211913 -2.55444)
(0.908391 0.211913 -2.36768)
(0.908391 0.211913 -2.74121)
(0.908391 0.211913 -3.11475)
(0.908391 -0.0955602 -3.25)
(0.908391 -0.0955602 -3)
(0.908391 -0.0955602 -2.5)
(0.809938 0.213803 -3.30151)
(0.809938 0.213803 -3.11475)
(0.809938 -0.0974501 -2.83333)
(0.908391 0.211913 -2.92798)
(0.809938 0.213803 -1.80737)
(0.809938 0.213803 -1.99414)
(0.908391 0.211913 -2.18091)
(0.908391 -0.0955602 -2.83333)
(0.908391 -0.0955602 -2.66667)
(0.90851 -0.0808358 -3)
(0.809381 -0.0816185 -3.25)
(0.809381 -0.0816185 -3)
(0.809381 -0.0816185 -2.75)
(0.809381 -0.0816185 -2.5)